*Heading
Plane strain swell induced bending
**
**	UNITS:	Length - meters, Time - sec, Angle - radians,
**		Temperature - Kelvin, Force - Newtons,
**		Stress - Newton/meter^2 = Pa, Mass - kilograms,
**		Density - kg/meter^3, Conductivity - Watt/m-K,
**		Specific Heat - J/m^3-K, Energy - Joules,
**	        Chemical potential - Joules/mole,
**		Fluid content - moles/volume
**
** Shawn Chester August 2013; Implemented in Abaqus 6.12-2
**
************************************************************************
**			PARAMETERS
************************************************************************
**
*Parameter
**
** initial polymer volume fraction, here we take 0.999 since 1.0
**  will cause numerical issues in the chemical potential `ln(1-phi)'
phi0 = 0.999
**
** chemical potential of the fluid (Joules/mole)
mu0 = 0.0
**
** temperature (Kelvin)
theta = 25.0 + 273.0
**
** initial chemical potential (Joules/mole), this value needs to be
**  computed for each set of material parameters
initMU = -14515.74
**
** total swelling time (seconds)
tf = 3600.0*6.0
**
** neo-Hookean parameters for the rubber substrate material
G   = 50.e6  # shear modulus
D   = 0.0    # will enforce incomprssibility
C10 = 0.5*G  # C10 parameter Abaqus is expecting
**
************************************************************************
**			MODEL DEFINITION
************************************************************************
*Node
      1,           0.,           0.
      2,  9.99999975e-06,           0.
      3,  1.99999995e-05,           0.
      4,  2.99999992e-05,           0.
      5,  3.9999999e-05,           0.
      6,  4.99999987e-05,           0.
      7,  5.99999985e-05,           0.
      8,  7.00000019e-05,           0.
      9,  7.9999998e-05,           0.
     10,  9.00000014e-05,           0.
     11,  9.99999975e-05,           0.
     12, 0.000110000001,           0.
     13, 0.000119999997,           0.
     14,      0.00013,           0.
     15, 0.000140000004,           0.
     16, 0.000150000007,           0.
     17, 0.000159999996,           0.
     18, 0.000169999999,           0.
     19, 0.000180000003,           0.
     20, 0.000190000006,           0.
** ... 5161 like lines cut
**
** The following are the UEL elements for the swellable gel
**
*User Element,Nodes=4,Type=U1,Iproperties=2,Properties=9,Coordinates=2,Variables=4,Unsymm
1,2,11
*Element, type=U1
   1,    1,    2,  473,  472
   2,    2,    3,  474,  473
   3,    3,    4,  475,  474
   4,    4,    5,  476,  475
   5,    5,    6,  477,  476
   6,    6,    7,  478,  477
   7,    7,    8,  479,  478
   8,    8,    9,  480,  479
   9,    9,   10,  481,  480
  10,   10,   11,  482,  481
  11,   11,   12,  483,  482
  12,   12,   13,  484,  483
  13,   13,   14,  485,  484
  14,   14,   15,  486,  485
  15,   15,   16,  487,  486
  16,   16,   17,  488,  487
  17,   17,   18,  489,  488
  18,   18,   19,  490,  489
  19,   19,   20,  491,  490
  20,   20,   21,  492,  491
** ... 4680 like lines cut
*Nset, nset=GelSet, generate
   1,5181, 1
*Elset, elset=GelSet, generate
 1,4700,    1
**
** Make the dummy mesh used for visualization.  These dummy elements
**  use the same nodes as the real mesh, but note the offset in element
**  numbering of 10000, that shows up again in the UVARM subroutine.
**
*Element, type=CPE4
10001, 1, 2, 473, 472
10002, 2, 3, 474, 473
10003, 3, 4, 475, 474
10004, 4, 5, 476, 475
10005, 5, 6, 477, 476
10006, 6, 7, 478, 477
10007, 7, 8, 479, 478
10008, 8, 9, 480, 479
10009, 9, 10, 481, 480
10010, 10, 11, 482, 481
10011, 11, 12, 483, 482
10012, 12, 13, 484, 483
10013, 13, 14, 485, 484
10014, 14, 15, 486, 485
10015, 15, 16, 487, 486
10016, 16, 17, 488, 487
10017, 17, 18, 489, 488
10018, 18, 19, 490, 489
10019, 19, 20, 491, 490
10020, 20, 21, 492, 491
** ... 4680 like lines cut
*Elset, elset=ElDummy, generate
10001,14700,1
**
** Sets used for BC's
**
*Nset, nset=Nall, generate
1,5181,1
*Nset, nset=Top, generate
 1,471, 1
*Elset, elset=Top, generate
 1,470,    1
*Nset, nset=Left, generate
  1,4711,471
*Elset, elset=Left, generate
  1,4231,470
*Nset, nset=Right, generate
471,5181,471
*Nset, nset=Right1, generate
0942,4710,471
*Nset, nset=n1
471
*Nset, nset=n2
5181
*Elset, elset=Right, generate
470,4700,470
*Nset, nset=PinnedCorner
 1
*Surface, Type=Node, Name=RightSurf
Right
*Surface, Type=Node, Name=TopSurf
Top
**
** Make a dummy element which is not connected to anything with CPE4T
**  just so that we can have the coupled thermal-displacement step
**
*Node
999996,  0.0, 0.0
999997,  .00001, 0.0
999998,  .00001, .00001
999999,  0.0, .00001
*Nset, nset=tempElement
999996,999997,999998,999999
*Element, Type=CPE4T
999999,999996,999997,999998,999999
*Elset,elset=tempElement
999999
**
**
** make a rigid surface
**
*Node
999000,0.0,0.e-3
*Nset, Nset=RigidRef
999000
*Surface, type=SEGMENTS, name=RigidSurf
START,-5.e-4,   5.e-3
LINE, -5e-4, 8.e-5
*Rigid Body, ref node=RigidRef, analytical surface=RigidSurf
**
************************************************************************
**			MATERIAL DEFINITION
************************************************************************
**
** Material properties for the real material
**
*uel property,elset=GelSet
*Include, Input=ElasticGelProps_cs.inp
**
** Material properties for the rubber substrate
**
**Solid section, elset=RubberSet, material=RubberMaterial
**
*Material, name=RubberMaterial
*Hyperelastic, neo hooke
<C10>,<D>
** Material properties for the dummy sections
**
*Solid section, elset=tempElement, material=Material-2
*Solid section, elset=ElDummy, material=Material-1
**
*Material, name=Material-2
*Elastic
1.e-20
*Conductivity
1.0
*Density
1.0
*Specific heat
1.0
**
*Material, name=Material-1
*User output variables
2
*Elastic
1.e-20
**
************************************************************************
**			BOUNDARY CONDITIONS
************************************************************************
*MPC
Slider, right1, n1, n2
**
*Contact Pair, Interaction=int, Type=node to surface
RightSurf,RigidSurf
TopSurf,RigidSurf
**
*Surface Interaction, name=int
*Friction
0.01
*Surface Behavior, pressure-overclosure=hard
**
************************************************************************
**			INITIAL CONDITIONS
************************************************************************
*Initial conditions, type=temperature
GelSet, <initMU>
**
*Initial conditions, type=temperature
tempElement, 0.0
**
************************************************************************
**			AMPLITUDE DEFINITION
************************************************************************
*Amplitude, name=chemProfile, definition=decay
<mu0>,<initMU>,0.0,300.0
**
************************************************************************
**			STEP DEFINITION
************************************************************************
*Step, Name=Swell, nlgeom=yes, inc=50000
*Coupled temperature-displacement, deltmx=100.0, stabilize, factor=0.0002
10.0,<tf>,1.e-6,1000.0
*Controls, Parameters=Line Search
10,1.0,0.0001,0.25,0.10
*Controls, Parameters=Time Incrementation
,,,,,,,10,,,,,,
**
*Boundary
Left,1,1
PinnedCorner,1,2
RigidRef,encastre
**
*Boundary, amplitude=chemProfile
top,11,11,1.0
**
*dload
top,U1,1.0
**
*Boundary
tempElement,encastre
tempElement,11,11,0.0
**
*Output, field
*node output, nset=Nall
u
*node output, nset=tempElement
u
*node output, nset=RigidRef
u
*element output, elset=ElDummy
uvarm1, uvarm2, le, s
*Output, history
***node output, nset=his
**u
**element output, elset=RubberSet
**le
**
*End Step
************************************************************************
